<?xml version="1.0" encoding="iso-8859-1"?>
<configuration xmlns:xsi="http://www.w3.org/2001/XMLSchema-instance"
  xsi:noNamespaceSchemaLocation="http://sumo.dlr.de/xsd/sumoConfiguration.xsd">
 <input>
 <net-file value="intersection.net.xml"/>
 <route-files value="intersection.rou.xml"/>
 <additional-files value="intersection.add.xml"/>
 </input>
 <output> 
 
  </output>
 <report>
 <verbose value="true"/>
 <no-step-log value="true"/>
 </report>

</configuration>
