<?xml version="1.0" encoding="UTF-8"?>

<!-- generated on 2022-10-02 20:33:54 by Eclipse SUMO netconvert Version 1.14.1
<configuration xmlns:xsi="http://www.w3.org/2001/XMLSchema-instance" xsi:noNamespaceSchemaLocation="http://sumo.dlr.de/xsd/netconvertConfiguration.xsd">

    <input>
        <node-files value="intersection.nod.xml"/>
        <edge-files value="intersection.edg.xml"/>
        <connection-files value="intersection.con.xml"/>
    </input>

    <output>
        <output-file value="intersection.net.xml"/>
    </output>

    <report>
        <verbose value="true"/>
    </report>

</configuration>
-->

<net version="1.9" junctionCornerDetail="5" limitTurnSpeed="5.50" xmlns:xsi="http://www.w3.org/2001/XMLSchema-instance" xsi:noNamespaceSchemaLocation="http://sumo.dlr.de/xsd/net_file.xsd">

    <location netOffset="510.00,510.00" convBoundary="0.00,0.00,1020.00,1020.00" origBoundary="-510.00,-510.00,510.00,510.00" projParameter="!"/>

    <edge id=":0_0" function="internal">
        <lane id=":0_0_0" index="0" speed="15.28" length="27.20" shape="502.00,523.60 502.00,496.40"/>
        <lane id=":0_0_1" index="1" speed="15.28" length="27.20" shape="505.20,523.60 505.20,496.40"/>
        <lane id=":0_0_2" index="2" speed="15.28" length="27.20" shape="508.40,523.60 508.40,496.40"/>
    </edge>
    <edge id=":0_3" function="internal">
        <lane id=":0_3_0" index="0" speed="15.28" length="27.20" shape="523.60,518.00 496.40,518.00"/>
        <lane id=":0_3_1" index="1" speed="15.28" length="27.20" shape="523.60,514.80 496.40,514.80"/>
        <lane id=":0_3_2" index="2" speed="15.28" length="27.20" shape="523.60,511.60 496.40,511.60"/>
    </edge>
    <edge id=":0_6" function="internal">
        <lane id=":0_6_0" index="0" speed="15.28" length="27.20" shape="518.00,496.40 518.00,523.60"/>
        <lane id=":0_6_1" index="1" speed="15.28" length="27.20" shape="514.80,496.40 514.80,523.60"/>
        <lane id=":0_6_2" index="2" speed="15.28" length="27.20" shape="511.60,496.40 511.60,523.60"/>
    </edge>
    <edge id=":0_9" function="internal">
        <lane id=":0_9_0" index="0" speed="15.28" length="27.28" shape="496.40,502.00 523.60,502.00"/>
        <lane id=":0_9_1" index="1" speed="15.28" length="27.28" shape="496.40,505.20 523.60,505.20"/>
        <lane id=":0_9_2" index="2" speed="15.28" length="27.28" shape="496.40,505.20 504.50,505.70 510.00,506.80 515.50,507.90 523.60,508.40"/>
    </edge>
    <edge id=":0_12" function="internal">
        <lane id=":0_12_0" index="0" speed="10.88" length="6.03" shape="496.40,508.40 502.38,509.11"/>
        <lane id=":0_12_1" index="1" speed="10.36" length="5.01" shape="496.40,508.40 501.36,509.11"/>
    </edge>
    <edge id=":0_14" function="internal">
        <lane id=":0_14_0" index="0" speed="3.65" length="1.44" shape="496.40,508.40 497.60,509.20"/>
    </edge>
    <edge id=":0_15" function="internal">
        <lane id=":0_15_0" index="0" speed="10.88" length="21.12" shape="502.38,509.11 504.45,509.35 510.20,512.20 513.65,516.95 514.80,523.60"/>
    </edge>
    <edge id=":0_16" function="internal">
        <lane id=":0_16_0" index="0" speed="10.36" length="19.50" shape="501.36,509.11 503.05,509.35 507.80,512.20 510.65,516.95 511.60,523.60"/>
    </edge>
    <edge id=":0_17" function="internal">
        <lane id=":0_17_0" index="0" speed="3.65" length="3.23" shape="497.60,509.20 498.00,510.00 497.60,510.80 496.40,511.60"/>
    </edge>
    <edge id=":1_0" function="internal">
        <lane id=":1_0_0" index="0" speed="15.28" length="0.10" shape="10.00,518.00 10.00,518.00"/>
        <lane id=":1_0_1" index="1" speed="15.28" length="0.10" shape="10.00,514.80 10.00,514.80"/>
        <lane id=":1_0_2" index="2" speed="15.28" length="0.10" shape="10.00,511.60 10.00,511.60"/>
    </edge>
    <edge id=":1_3" function="internal">
        <lane id=":1_3_0" index="0" speed="15.28" length="0.10" shape="10.00,502.00 10.00,502.00"/>
        <lane id=":1_3_1" index="1" speed="15.28" length="0.10" shape="10.00,505.20 10.00,505.20"/>
        <lane id=":1_3_2" index="2" speed="15.28" length="0.10" shape="10.00,508.40 10.00,508.40"/>
    </edge>
    <edge id=":2_0" function="internal">
        <lane id=":2_0_0" index="0" speed="15.28" length="0.10" shape="1010.00,518.00 1010.00,518.00"/>
        <lane id=":2_0_1" index="1" speed="15.28" length="0.10" shape="1010.00,514.80 1010.00,514.80"/>
        <lane id=":2_0_2" index="2" speed="15.28" length="0.10" shape="1010.00,511.60 1010.00,511.60"/>
    </edge>
    <edge id=":2_3" function="internal">
        <lane id=":2_3_0" index="0" speed="15.28" length="0.10" shape="1010.00,502.00 1010.00,502.00"/>
        <lane id=":2_3_1" index="1" speed="15.28" length="0.10" shape="1010.00,505.20 1010.00,505.20"/>
        <lane id=":2_3_2" index="2" speed="15.28" length="0.10" shape="1010.00,508.40 1010.00,508.40"/>
    </edge>
    <edge id=":3_0" function="internal">
        <lane id=":3_0_0" index="0" speed="15.28" length="0.10" shape="502.00,10.00 502.00,10.00"/>
        <lane id=":3_0_1" index="1" speed="15.28" length="0.10" shape="505.20,10.00 505.20,10.00"/>
        <lane id=":3_0_2" index="2" speed="15.28" length="0.10" shape="508.40,10.00 508.40,10.00"/>
    </edge>
    <edge id=":3_3" function="internal">
        <lane id=":3_3_0" index="0" speed="15.28" length="0.10" shape="518.00,10.00 518.00,10.00"/>
        <lane id=":3_3_1" index="1" speed="15.28" length="0.10" shape="514.80,10.00 514.80,10.00"/>
        <lane id=":3_3_2" index="2" speed="15.28" length="0.10" shape="511.60,10.00 511.60,10.00"/>
    </edge>
    <edge id=":4_0" function="internal">
        <lane id=":4_0_0" index="0" speed="15.28" length="0.10" shape="502.00,1010.00 502.00,1010.00"/>
        <lane id=":4_0_1" index="1" speed="15.28" length="0.10" shape="505.20,1010.00 505.20,1010.00"/>
        <lane id=":4_0_2" index="2" speed="15.28" length="0.10" shape="508.40,1010.00 508.40,1010.00"/>
    </edge>
    <edge id=":4_3" function="internal">
        <lane id=":4_3_0" index="0" speed="15.28" length="0.10" shape="518.00,1010.00 518.00,1010.00"/>
        <lane id=":4_3_1" index="1" speed="15.28" length="0.10" shape="514.80,1010.00 514.80,1010.00"/>
        <lane id=":4_3_2" index="2" speed="15.28" length="0.10" shape="511.60,1010.00 511.60,1010.00"/>
    </edge>
    <edge id=":51_0" function="internal">
        <lane id=":51_0_0" index="0" speed="3.65" length="4.67" shape="0.00,511.60 -1.20,510.80 -1.60,510.00 -1.20,509.20 0.00,508.40"/>
    </edge>
    <edge id=":52_0" function="internal">
        <lane id=":52_0_0" index="0" speed="3.65" length="4.67" shape="1020.00,508.40 1021.20,509.20 1021.60,510.00 1021.20,510.80 1020.00,511.60"/>
    </edge>
    <edge id=":53_0" function="internal">
        <lane id=":53_0_0" index="0" speed="3.65" length="4.67" shape="508.40,0.00 509.20,-1.20 510.00,-1.60 510.80,-1.20 511.60,0.00"/>
    </edge>
    <edge id=":54_0" function="internal">
        <lane id=":54_0_0" index="0" speed="3.65" length="4.67" shape="511.60,1020.00 510.80,1021.20 510.00,1021.60 509.20,1021.20 508.40,1020.00"/>
    </edge>

    <edge id="1i" from="1" to="0" priority="78">
        <lane id="1i_0" index="0" speed="19.44" length="486.40" shape="10.00,502.00 496.40,502.00"/>
        <lane id="1i_1" index="1" speed="19.44" length="486.40" shape="10.00,505.20 496.40,505.20"/>
        <lane id="1i_2" index="2" speed="19.44" length="486.40" shape="10.00,508.40 496.40,508.40"/>
    </edge>
    <edge id="1o" from="0" to="1" priority="46">
        <lane id="1o_0" index="0" speed="11.11" length="486.40" shape="496.40,518.00 10.00,518.00"/>
        <lane id="1o_1" index="1" speed="11.11" length="486.40" shape="496.40,514.80 10.00,514.80"/>
        <lane id="1o_2" index="2" speed="11.11" length="486.40" shape="496.40,511.60 10.00,511.60"/>
    </edge>
    <edge id="2i" from="2" to="0" priority="78">
        <lane id="2i_0" index="0" speed="19.44" length="486.40" shape="1010.00,518.00 523.60,518.00"/>
        <lane id="2i_1" index="1" speed="19.44" length="486.40" shape="1010.00,514.80 523.60,514.80"/>
        <lane id="2i_2" index="2" speed="19.44" length="486.40" shape="1010.00,511.60 523.60,511.60"/>
    </edge>
    <edge id="2o" from="0" to="2" priority="46">
        <lane id="2o_0" index="0" speed="11.11" length="486.40" shape="523.60,502.00 1010.00,502.00"/>
        <lane id="2o_1" index="1" speed="11.11" length="486.40" shape="523.60,505.20 1010.00,505.20"/>
        <lane id="2o_2" index="2" speed="11.11" length="486.40" shape="523.60,508.40 1010.00,508.40"/>
    </edge>
    <edge id="3i" from="3" to="0" priority="78">
        <lane id="3i_0" index="0" speed="19.44" length="486.40" shape="518.00,10.00 518.00,496.40"/>
        <lane id="3i_1" index="1" speed="19.44" length="486.40" shape="514.80,10.00 514.80,496.40"/>
        <lane id="3i_2" index="2" speed="19.44" length="486.40" shape="511.60,10.00 511.60,496.40"/>
    </edge>
    <edge id="3o" from="0" to="3" priority="46">
        <lane id="3o_0" index="0" speed="11.11" length="486.40" shape="502.00,496.40 502.00,10.00"/>
        <lane id="3o_1" index="1" speed="11.11" length="486.40" shape="505.20,496.40 505.20,10.00"/>
        <lane id="3o_2" index="2" speed="11.11" length="486.40" shape="508.40,496.40 508.40,10.00"/>
    </edge>
    <edge id="4i" from="4" to="0" priority="78">
        <lane id="4i_0" index="0" speed="19.44" length="486.40" shape="502.00,1010.00 502.00,523.60"/>
        <lane id="4i_1" index="1" speed="19.44" length="486.40" shape="505.20,1010.00 505.20,523.60"/>
        <lane id="4i_2" index="2" speed="19.44" length="486.40" shape="508.40,1010.00 508.40,523.60"/>
    </edge>
    <edge id="4o" from="0" to="4" priority="46">
        <lane id="4o_0" index="0" speed="11.11" length="486.40" shape="518.00,523.60 518.00,1010.00"/>
        <lane id="4o_1" index="1" speed="11.11" length="486.40" shape="514.80,523.60 514.80,1010.00"/>
        <lane id="4o_2" index="2" speed="11.11" length="486.40" shape="511.60,523.60 511.60,1010.00"/>
    </edge>
    <edge id="51i" from="1" to="51" priority="78">
        <lane id="51i_0" index="0" speed="19.44" length="10.00" shape="10.00,518.00 0.00,518.00"/>
        <lane id="51i_1" index="1" speed="19.44" length="10.00" shape="10.00,514.80 0.00,514.80"/>
        <lane id="51i_2" index="2" speed="19.44" length="10.00" shape="10.00,511.60 0.00,511.60"/>
    </edge>
    <edge id="51o" from="51" to="1" priority="46">
        <lane id="51o_0" index="0" speed="11.11" length="10.00" shape="0.00,502.00 10.00,502.00"/>
        <lane id="51o_1" index="1" speed="11.11" length="10.00" shape="0.00,505.20 10.00,505.20"/>
        <lane id="51o_2" index="2" speed="11.11" length="10.00" shape="0.00,508.40 10.00,508.40"/>
    </edge>
    <edge id="52i" from="2" to="52" priority="78">
        <lane id="52i_0" index="0" speed="19.44" length="10.00" shape="1010.00,502.00 1020.00,502.00"/>
        <lane id="52i_1" index="1" speed="19.44" length="10.00" shape="1010.00,505.20 1020.00,505.20"/>
        <lane id="52i_2" index="2" speed="19.44" length="10.00" shape="1010.00,508.40 1020.00,508.40"/>
    </edge>
    <edge id="52o" from="52" to="2" priority="46">
        <lane id="52o_0" index="0" speed="11.11" length="10.00" shape="1020.00,518.00 1010.00,518.00"/>
        <lane id="52o_1" index="1" speed="11.11" length="10.00" shape="1020.00,514.80 1010.00,514.80"/>
        <lane id="52o_2" index="2" speed="11.11" length="10.00" shape="1020.00,511.60 1010.00,511.60"/>
    </edge>
    <edge id="53i" from="3" to="53" priority="78">
        <lane id="53i_0" index="0" speed="19.44" length="10.00" shape="502.00,10.00 502.00,0.00"/>
        <lane id="53i_1" index="1" speed="19.44" length="10.00" shape="505.20,10.00 505.20,0.00"/>
        <lane id="53i_2" index="2" speed="19.44" length="10.00" shape="508.40,10.00 508.40,0.00"/>
    </edge>
    <edge id="53o" from="53" to="3" priority="46">
        <lane id="53o_0" index="0" speed="11.11" length="10.00" shape="518.00,0.00 518.00,10.00"/>
        <lane id="53o_1" index="1" speed="11.11" length="10.00" shape="514.80,0.00 514.80,10.00"/>
        <lane id="53o_2" index="2" speed="11.11" length="10.00" shape="511.60,0.00 511.60,10.00"/>
    </edge>
    <edge id="54i" from="4" to="54" priority="78">
        <lane id="54i_0" index="0" speed="19.44" length="10.00" shape="518.00,1010.00 518.00,1020.00"/>
        <lane id="54i_1" index="1" speed="19.44" length="10.00" shape="514.80,1010.00 514.80,1020.00"/>
        <lane id="54i_2" index="2" speed="19.44" length="10.00" shape="511.60,1010.00 511.60,1020.00"/>
    </edge>
    <edge id="54o" from="54" to="4" priority="46">
        <lane id="54o_0" index="0" speed="11.11" length="10.00" shape="502.00,1020.00 502.00,1010.00"/>
        <lane id="54o_1" index="1" speed="11.11" length="10.00" shape="505.20,1020.00 505.20,1010.00"/>
        <lane id="54o_2" index="2" speed="11.11" length="10.00" shape="508.40,1020.00 508.40,1010.00"/>
    </edge>

    <tlLogic id="0" type="static" programID="0" offset="0">
        <phase duration="35" state="GGGrrrGGGrrrrrG"/>
        <phase duration="5"  state="yyyrrryyyrrrrry"/>
        <phase duration="34" state="rrrGGGrrrGGGrrr"/>
        <phase duration="5"  state="rrryyyrrryyyrrr"/>
        <phase duration="6"  state="rrrrrrrrrGGGGGG"/>
        <phase duration="5"  state="rrrrrrrrryyyyyy"/>
    </tlLogic>

    <junction id="0" type="traffic_light" x="510.00" y="510.00" incLanes="4i_0 4i_1 4i_2 2i_0 2i_1 2i_2 3i_0 3i_1 3i_2 1i_0 1i_1 1i_2" intLanes=":0_0_0 :0_0_1 :0_0_2 :0_3_0 :0_3_1 :0_3_2 :0_6_0 :0_6_1 :0_6_2 :0_9_0 :0_9_1 :0_9_2 :0_15_0 :0_16_0 :0_17_0" shape="500.40,523.60 519.60,523.60 520.04,521.38 520.60,520.60 521.38,520.04 522.38,519.71 523.60,519.60 523.60,500.40 521.38,499.96 520.60,499.40 520.04,498.62 519.71,497.62 519.60,496.40 500.40,496.40 499.96,498.62 499.40,499.40 498.62,499.96 497.62,500.29 496.40,500.40 496.40,519.60 498.62,520.04 499.40,520.60 499.96,521.38 500.29,522.38">
        <request index="0"  response="011000000000000" foes="011111000111000" cont="0"/>
        <request index="1"  response="011000000000000" foes="011111000111000" cont="0"/>
        <request index="2"  response="011000000000000" foes="011111000111000" cont="0"/>
        <request index="3"  response="000000111000111" foes="111000111000111" cont="0"/>
        <request index="4"  response="000000111000111" foes="111000111000111" cont="0"/>
        <request index="5"  response="000000111000111" foes="111000111000111" cont="0"/>
        <request index="6"  response="011000000000000" foes="011111000111000" cont="0"/>
        <request index="7"  response="011000000000000" foes="011111000111000" cont="0"/>
        <request index="8"  response="011000000000000" foes="011111000111000" cont="0"/>
        <request index="9"  response="000000111000111" foes="000000111000111" cont="0"/>
        <request index="10" response="000000111000111" foes="000000111000111" cont="0"/>
        <request index="11" response="000000111000111" foes="000000111000111" cont="0"/>
        <request index="12" response="000000111111111" foes="000000111111111" cont="1"/>
        <request index="13" response="000000111111111" foes="000000111111111" cont="1"/>
        <request index="14" response="000000000111000" foes="000000000111000" cont="1"/>
    </junction>
    <junction id="1" type="priority" x="10.00" y="510.00" incLanes="1o_0 1o_1 1o_2 51o_0 51o_1 51o_2" intLanes=":1_0_0 :1_0_1 :1_0_2 :1_3_0 :1_3_1 :1_3_2" shape="10.00,519.60 10.00,500.40 10.00,519.60">
        <request index="0" response="000000" foes="000000" cont="0"/>
        <request index="1" response="000000" foes="000000" cont="0"/>
        <request index="2" response="000000" foes="000000" cont="0"/>
        <request index="3" response="000000" foes="000000" cont="0"/>
        <request index="4" response="000000" foes="000000" cont="0"/>
        <request index="5" response="000000" foes="000000" cont="0"/>
    </junction>
    <junction id="2" type="priority" x="1010.00" y="510.00" incLanes="52o_0 52o_1 52o_2 2o_0 2o_1 2o_2" intLanes=":2_0_0 :2_0_1 :2_0_2 :2_3_0 :2_3_1 :2_3_2" shape="1010.00,519.60 1010.00,500.40 1010.00,519.60">
        <request index="0" response="000000" foes="000000" cont="0"/>
        <request index="1" response="000000" foes="000000" cont="0"/>
        <request index="2" response="000000" foes="000000" cont="0"/>
        <request index="3" response="000000" foes="000000" cont="0"/>
        <request index="4" response="000000" foes="000000" cont="0"/>
        <request index="5" response="000000" foes="000000" cont="0"/>
    </junction>
    <junction id="3" type="priority" x="510.00" y="10.00" incLanes="3o_0 3o_1 3o_2 53o_0 53o_1 53o_2" intLanes=":3_0_0 :3_0_1 :3_0_2 :3_3_0 :3_3_1 :3_3_2" shape="500.40,10.00 519.60,10.00 500.40,10.00">
        <request index="0" response="000000" foes="000000" cont="0"/>
        <request index="1" response="000000" foes="000000" cont="0"/>
        <request index="2" response="000000" foes="000000" cont="0"/>
        <request index="3" response="000000" foes="000000" cont="0"/>
        <request index="4" response="000000" foes="000000" cont="0"/>
        <request index="5" response="000000" foes="000000" cont="0"/>
    </junction>
    <junction id="4" type="priority" x="510.00" y="1010.00" incLanes="54o_0 54o_1 54o_2 4o_0 4o_1 4o_2" intLanes=":4_0_0 :4_0_1 :4_0_2 :4_3_0 :4_3_1 :4_3_2" shape="500.40,1010.00 519.60,1010.00 500.40,1010.00">
        <request index="0" response="000000" foes="000000" cont="0"/>
        <request index="1" response="000000" foes="000000" cont="0"/>
        <request index="2" response="000000" foes="000000" cont="0"/>
        <request index="3" response="000000" foes="000000" cont="0"/>
        <request index="4" response="000000" foes="000000" cont="0"/>
        <request index="5" response="000000" foes="000000" cont="0"/>
    </junction>
    <junction id="51" type="priority" x="0.00" y="510.00" incLanes="51i_0 51i_1 51i_2" intLanes=":51_0_0" shape="0.00,510.00 0.00,519.60 0.00,510.00">
        <request index="0" response="0" foes="0" cont="0"/>
    </junction>
    <junction id="52" type="priority" x="1020.00" y="510.00" incLanes="52i_0 52i_1 52i_2" intLanes=":52_0_0" shape="1020.00,510.00 1020.00,500.40 1020.00,510.00">
        <request index="0" response="0" foes="0" cont="0"/>
    </junction>
    <junction id="53" type="priority" x="510.00" y="0.00" incLanes="53i_0 53i_1 53i_2" intLanes=":53_0_0" shape="510.00,0.00 500.40,0.00 510.00,0.00">
        <request index="0" response="0" foes="0" cont="0"/>
    </junction>
    <junction id="54" type="priority" x="510.00" y="1020.00" incLanes="54i_0 54i_1 54i_2" intLanes=":54_0_0" shape="510.00,1020.00 519.60,1020.00 510.00,1020.00">
        <request index="0" response="0" foes="0" cont="0"/>
    </junction>

    <junction id=":0_15_0" type="internal" x="502.38" y="509.11" incLanes=":0_12_0 2i_0 2i_1 2i_2" intLanes=":0_0_0 :0_0_1 :0_0_2 :0_3_0 :0_3_1 :0_3_2 :0_6_0 :0_6_1 :0_6_2"/>
    <junction id=":0_16_0" type="internal" x="501.36" y="509.11" incLanes=":0_12_1 2i_0 2i_1 2i_2" intLanes=":0_0_0 :0_0_1 :0_0_2 :0_3_0 :0_3_1 :0_3_2 :0_6_0 :0_6_1 :0_6_2"/>
    <junction id=":0_17_0" type="internal" x="497.60" y="509.20" incLanes=":0_14_0 2i_0 2i_1 2i_2" intLanes=":0_3_0 :0_3_1 :0_3_2"/>

    <connection from="1i" to="2o" fromLane="0" toLane="0" via=":0_9_0" tl="0" linkIndex="9" dir="s" state="o"/>
    <connection from="1i" to="2o" fromLane="1" toLane="1" via=":0_9_1" tl="0" linkIndex="10" dir="s" state="o"/>
    <connection from="1i" to="2o" fromLane="1" toLane="2" via=":0_9_2" tl="0" linkIndex="11" dir="s" state="o"/>
    <connection from="1i" to="4o" fromLane="2" toLane="1" via=":0_12_0" tl="0" linkIndex="12" dir="l" state="o"/>
    <connection from="1i" to="4o" fromLane="2" toLane="2" via=":0_12_1" tl="0" linkIndex="13" dir="l" state="o"/>
    <connection from="1i" to="1o" fromLane="2" toLane="2" via=":0_14_0" tl="0" linkIndex="14" dir="t" state="o"/>
    <connection from="1o" to="51i" fromLane="0" toLane="0" via=":1_0_0" dir="s" state="M"/>
    <connection from="1o" to="51i" fromLane="1" toLane="1" via=":1_0_1" dir="s" state="M"/>
    <connection from="1o" to="51i" fromLane="2" toLane="2" via=":1_0_2" dir="s" state="M"/>
    <connection from="2i" to="1o" fromLane="0" toLane="0" via=":0_3_0" tl="0" linkIndex="3" dir="s" state="o"/>
    <connection from="2i" to="1o" fromLane="1" toLane="1" via=":0_3_1" tl="0" linkIndex="4" dir="s" state="o"/>
    <connection from="2i" to="1o" fromLane="2" toLane="2" via=":0_3_2" tl="0" linkIndex="5" dir="s" state="o"/>
    <connection from="2o" to="52i" fromLane="0" toLane="0" via=":2_3_0" dir="s" state="M"/>
    <connection from="2o" to="52i" fromLane="1" toLane="1" via=":2_3_1" dir="s" state="M"/>
    <connection from="2o" to="52i" fromLane="2" toLane="2" via=":2_3_2" dir="s" state="M"/>
    <connection from="3i" to="4o" fromLane="0" toLane="0" via=":0_6_0" tl="0" linkIndex="6" dir="s" state="O"/>
    <connection from="3i" to="4o" fromLane="1" toLane="1" via=":0_6_1" tl="0" linkIndex="7" dir="s" state="O"/>
    <connection from="3i" to="4o" fromLane="2" toLane="2" via=":0_6_2" tl="0" linkIndex="8" dir="s" state="O"/>
    <connection from="3o" to="53i" fromLane="0" toLane="0" via=":3_0_0" dir="s" state="M"/>
    <connection from="3o" to="53i" fromLane="1" toLane="1" via=":3_0_1" dir="s" state="M"/>
    <connection from="3o" to="53i" fromLane="2" toLane="2" via=":3_0_2" dir="s" state="M"/>
    <connection from="4i" to="3o" fromLane="0" toLane="0" via=":0_0_0" tl="0" linkIndex="0" dir="s" state="O"/>
    <connection from="4i" to="3o" fromLane="1" toLane="1" via=":0_0_1" tl="0" linkIndex="1" dir="s" state="O"/>
    <connection from="4i" to="3o" fromLane="2" toLane="2" via=":0_0_2" tl="0" linkIndex="2" dir="s" state="O"/>
    <connection from="4o" to="54i" fromLane="0" toLane="0" via=":4_3_0" dir="s" state="M"/>
    <connection from="4o" to="54i" fromLane="1" toLane="1" via=":4_3_1" dir="s" state="M"/>
    <connection from="4o" to="54i" fromLane="2" toLane="2" via=":4_3_2" dir="s" state="M"/>
    <connection from="51i" to="51o" fromLane="2" toLane="2" via=":51_0_0" dir="t" state="M"/>
    <connection from="51o" to="1i" fromLane="0" toLane="0" via=":1_3_0" dir="s" state="M"/>
    <connection from="51o" to="1i" fromLane="1" toLane="1" via=":1_3_1" dir="s" state="M"/>
    <connection from="51o" to="1i" fromLane="2" toLane="2" via=":1_3_2" dir="s" state="M"/>
    <connection from="52i" to="52o" fromLane="2" toLane="2" via=":52_0_0" dir="t" state="M"/>
    <connection from="52o" to="2i" fromLane="0" toLane="0" via=":2_0_0" dir="s" state="M"/>
    <connection from="52o" to="2i" fromLane="1" toLane="1" via=":2_0_1" dir="s" state="M"/>
    <connection from="52o" to="2i" fromLane="2" toLane="2" via=":2_0_2" dir="s" state="M"/>
    <connection from="53i" to="53o" fromLane="2" toLane="2" via=":53_0_0" dir="t" state="M"/>
    <connection from="53o" to="3i" fromLane="0" toLane="0" via=":3_3_0" dir="s" state="M"/>
    <connection from="53o" to="3i" fromLane="1" toLane="1" via=":3_3_1" dir="s" state="M"/>
    <connection from="53o" to="3i" fromLane="2" toLane="2" via=":3_3_2" dir="s" state="M"/>
    <connection from="54i" to="54o" fromLane="2" toLane="2" via=":54_0_0" dir="t" state="M"/>
    <connection from="54o" to="4i" fromLane="0" toLane="0" via=":4_0_0" dir="s" state="M"/>
    <connection from="54o" to="4i" fromLane="1" toLane="1" via=":4_0_1" dir="s" state="M"/>
    <connection from="54o" to="4i" fromLane="2" toLane="2" via=":4_0_2" dir="s" state="M"/>

    <connection from=":0_0" to="3o" fromLane="0" toLane="0" dir="s" state="M"/>
    <connection from=":0_0" to="3o" fromLane="1" toLane="1" dir="s" state="M"/>
    <connection from=":0_0" to="3o" fromLane="2" toLane="2" dir="s" state="M"/>
    <connection from=":0_3" to="1o" fromLane="0" toLane="0" dir="s" state="M"/>
    <connection from=":0_3" to="1o" fromLane="1" toLane="1" dir="s" state="M"/>
    <connection from=":0_3" to="1o" fromLane="2" toLane="2" dir="s" state="M"/>
    <connection from=":0_6" to="4o" fromLane="0" toLane="0" dir="s" state="M"/>
    <connection from=":0_6" to="4o" fromLane="1" toLane="1" dir="s" state="M"/>
    <connection from=":0_6" to="4o" fromLane="2" toLane="2" dir="s" state="M"/>
    <connection from=":0_9" to="2o" fromLane="0" toLane="0" dir="s" state="M"/>
    <connection from=":0_9" to="2o" fromLane="1" toLane="1" dir="s" state="M"/>
    <connection from=":0_9" to="2o" fromLane="2" toLane="2" dir="s" state="M"/>
    <connection from=":0_12" to="4o" fromLane="0" toLane="1" via=":0_15_0" dir="l" state="m"/>
    <connection from=":0_15" to="4o" fromLane="0" toLane="1" dir="l" state="M"/>
    <connection from=":0_12" to="4o" fromLane="1" toLane="2" via=":0_16_0" dir="l" state="m"/>
    <connection from=":0_16" to="4o" fromLane="0" toLane="2" dir="l" state="M"/>
    <connection from=":0_14" to="1o" fromLane="0" toLane="2" via=":0_17_0" dir="t" state="m"/>
    <connection from=":0_17" to="1o" fromLane="0" toLane="2" dir="t" state="M"/>
    <connection from=":1_0" to="51i" fromLane="0" toLane="0" dir="s" state="M"/>
    <connection from=":1_0" to="51i" fromLane="1" toLane="1" dir="s" state="M"/>
    <connection from=":1_0" to="51i" fromLane="2" toLane="2" dir="s" state="M"/>
    <connection from=":1_3" to="1i" fromLane="0" toLane="0" dir="s" state="M"/>
    <connection from=":1_3" to="1i" fromLane="1" toLane="1" dir="s" state="M"/>
    <connection from=":1_3" to="1i" fromLane="2" toLane="2" dir="s" state="M"/>
    <connection from=":2_0" to="2i" fromLane="0" toLane="0" dir="s" state="M"/>
    <connection from=":2_0" to="2i" fromLane="1" toLane="1" dir="s" state="M"/>
    <connection from=":2_0" to="2i" fromLane="2" toLane="2" dir="s" state="M"/>
    <connection from=":2_3" to="52i" fromLane="0" toLane="0" dir="s" state="M"/>
    <connection from=":2_3" to="52i" fromLane="1" toLane="1" dir="s" state="M"/>
    <connection from=":2_3" to="52i" fromLane="2" toLane="2" dir="s" state="M"/>
    <connection from=":3_0" to="53i" fromLane="0" toLane="0" dir="s" state="M"/>
    <connection from=":3_0" to="53i" fromLane="1" toLane="1" dir="s" state="M"/>
    <connection from=":3_0" to="53i" fromLane="2" toLane="2" dir="s" state="M"/>
    <connection from=":3_3" to="3i" fromLane="0" toLane="0" dir="s" state="M"/>
    <connection from=":3_3" to="3i" fromLane="1" toLane="1" dir="s" state="M"/>
    <connection from=":3_3" to="3i" fromLane="2" toLane="2" dir="s" state="M"/>
    <connection from=":4_0" to="4i" fromLane="0" toLane="0" dir="s" state="M"/>
    <connection from=":4_0" to="4i" fromLane="1" toLane="1" dir="s" state="M"/>
    <connection from=":4_0" to="4i" fromLane="2" toLane="2" dir="s" state="M"/>
    <connection from=":4_3" to="54i" fromLane="0" toLane="0" dir="s" state="M"/>
    <connection from=":4_3" to="54i" fromLane="1" toLane="1" dir="s" state="M"/>
    <connection from=":4_3" to="54i" fromLane="2" toLane="2" dir="s" state="M"/>
    <connection from=":51_0" to="51o" fromLane="0" toLane="2" dir="t" state="M"/>
    <connection from=":52_0" to="52o" fromLane="0" toLane="2" dir="t" state="M"/>
    <connection from=":53_0" to="53o" fromLane="0" toLane="2" dir="t" state="M"/>
    <connection from=":54_0" to="54o" fromLane="0" toLane="2" dir="t" state="M"/>

</net>
